Version 4
SHEET 1 880 680
WIRE 320 0 320 -16
WIRE 96 16 0 16
WIRE 288 16 176 16
WIRE 464 32 352 32
WIRE 288 48 224 48
WIRE 0 64 0 16
WIRE 320 80 320 64
WIRE 224 96 224 48
WIRE 0 176 0 144
WIRE -64 272 -64 256
WIRE 80 272 80 256
WIRE 224 272 224 176
WIRE -64 384 -64 352
WIRE 80 384 80 352
WIRE 224 384 224 352
FLAG 0 176 0
FLAG 320 -16 +V
FLAG 320 80 -V
FLAG -64 256 -V
FLAG -64 384 0
FLAG 80 256 +V
FLAG 80 384 0
FLAG 464 32 out
FLAG 224 384 0
SYMBOL voltage 0 48 R0
WINDOW 123 0 0 Left 0
WINDOW 39 0 0 Left 0
WINDOW 3 -183 106 Left 0
SYMATTR InstName V1
SYMATTR Value SINE(0 500m 1k)
SYMBOL voltage -64 256 R0
WINDOW 123 0 0 Left 0
WINDOW 39 0 0 Left 0
SYMATTR InstName V2
SYMATTR Value -10
SYMBOL voltage 80 256 R0
WINDOW 123 0 0 Left 0
WINDOW 39 0 0 Left 0
SYMATTR InstName V3
SYMATTR Value 10
SYMBOL Opamps\\LT1007 320 -32 R0
SYMATTR InstName U1
SYMBOL res 192 0 R90
WINDOW 0 0 56 VBottom 0
WINDOW 3 32 56 VTop 0
SYMATTR InstName R1
SYMATTR Value 6k8
SYMBOL voltage 224 256 R0
WINDOW 123 0 0 Left 0
WINDOW 39 0 0 Left 0
SYMATTR InstName Vref
SYMATTR Value 400m
SYMBOL res 240 192 R180
WINDOW 0 36 76 Left 0
WINDOW 3 36 40 Left 0
SYMATTR InstName R2
SYMATTR Value 6k8
TEXT 328 144 Left 0 !.lib opamp.sub
TEXT 328 168 Left 0 !.tran 0 1s 995m
